
 *******************************************************************************

         NASA-GLENN CHEMICAL EQUILIBRIUM PROGRAM CEA2, MAY 21, 2004
                   BY  BONNIE MCBRIDE AND SANFORD GORDON
      REFS: NASA RP-1311, PART I, 1994 AND NASA RP-1311, PART II, 1996

 *******************************************************************************



 problem rocket fr
     p(psi) = 781.25
     o/f = 2.5
     sup = 1.6469
 reac
     fuel = H2 t(K) = 297.000 wt% = 100.000
     ox = O2 t(K) = 297.000 wt% = 100.000
 outp trans
 end

 OPTIONS: TP=F  HP=F  SP=F  TV=F  UV=F  SV=F  DETN=F  SHOCK=F  REFL=F  INCD=F
 RKT=T  FROZ=T  EQL=F  IONS=F  SIUNIT=T  DEBUGF=F  SHKDBG=F  DETDBG=F  TRNSPT=T

 TRACE= 0.00E+00  S/R= 0.000000E+00  H/R= 0.000000E+00  U/R= 0.000000E+00

 Pc,BAR =    53.865082

 Pc/P =

 SUBSONIC AREA RATIOS =

 SUPERSONIC AREA RATIOS =     1.6469

 NFZ=  1  Mdot/Ac= 0.000000E+00  Ac/At= 0.000000E+00

    REACTANT          WT.FRAC   (ENERGY/R),K   TEMP,K  DENSITY
        EXPLODED FORMULA
 F: H2               1.000000  -0.398787E+01   297.00  0.0000
          H  2.00000
 O: O2               1.000000  -0.406300E+01   297.00  0.0000
          O  2.00000

  SPECIES BEING CONSIDERED IN THIS SYSTEM
 (CONDENSED PHASE MAY HAVE NAME LISTED SEVERAL TIMES)
  LAST thermo.inp UPDATE:    9/09/04

  g 6/97  *H               g 4/02  HO2              tpis78  *H2            
  g 8/89  H2O              g 6/99  H2O2             g 5/97  *O             
  g 4/02  *OH              tpis89  *O2              g 8/01  O3             
  g11/99  H2O(cr)          g 8/01  H2O(L)           g 8/01  H2O(L)         

 SPECIES WITH TRANSPORT PROPERTIES

        PURE SPECIES

  H                 H2                H2O               O               
  OH                O2              

     BINARY INTERACTIONS

     H               H2              
     H               O               
     H2              H2O             
     H2              O2              
     H2O             O2              
     O               O2              


 O/F =   2.500000

                       EFFECTIVE FUEL     EFFECTIVE OXIDANT        MIXTURE
 ENTHALPY                  h(2)/R              h(1)/R               h0/R
 (KG-MOL)(K)/KG       -0.19782258E+01     -0.12697366E+00     -0.65590285E+00

 KG-FORM.WT./KG             bi(2)               bi(1)               b0i
  *H                   0.99212255E+00      0.00000000E+00      0.28346358E+00
  *O                   0.00000000E+00      0.62502344E-01      0.44644531E-01

 POINT ITN      T            H           O 
   1    9    2403.159      -8.236     -21.108





           THEORETICAL ROCKET PERFORMANCE ASSUMING FROZEN COMPOSITION

 Pin =   781.3 PSIA
 CASE =                

             REACTANT                    WT FRACTION      ENERGY      TEMP
                                          (SEE NOTE)     KJ/KG-MOL      K  
 FUEL        H2                           1.0000000       -33.157    297.000
 OXIDANT     O2                           1.0000000       -33.782    297.000

 O/F=    2.50000  %FUEL= 28.571429  R,EQ.RATIO= 3.174673  PHI,EQ.RATIO= 3.174673

                 CHAMBER   THROAT     EXIT
 Pinf/P            1.0000   1.8085   6.5384
 P, BAR            53.865   29.785   8.2383
 T, K             2403.16  2130.36  1620.31
 RHO, KG/CU M    1.9001 0 1.1852 0 4.3102-1
 H, KJ/KG         -5.4535 -1588.19 -4417.94
 U, KJ/KG        -2840.24 -4101.17 -6329.27
 G, KJ/KG        -65476.8 -59627.3 -48561.5
 S, KJ/(KG)(K)    27.2439  27.2439  27.2439

 M, (1/n)           7.049    7.049    7.049
 Cp, KJ/(KG)(K)    5.8764   5.7227   5.3543
 GAMMAs            1.2511   1.2596   1.2826
 SON VEL,M/SEC     1883.3   1779.2   1565.7
 MACH NUMBER        0.000    1.000    1.897

 TRANSPORT PROPERTIES (GASES ONLY)
   CONDUCTIVITY IN UNITS OF MILLIWATTS/(CM)(K)

 VISC,MILLIPOISE  0.67342  0.61701  0.50406

  WITH FROZEN REACTIONS

 Cp, KJ/(KG)(K)    5.8764   5.7227   5.3543
 CONDUCTIVITY      6.3965   5.7247   4.4521
 PRANDTL NUMBER    0.6187   0.6168   0.6062

 PERFORMANCE PARAMETERS

 Ae/At                      1.0000   1.6469
 CSTAR, M/SEC               2554.4   2554.4
 CF                         0.6965   1.1630
 Ivac, M/SEC                3191.6   3614.1
 Isp, M/SEC                 1779.2   2970.7

 MOLE FRACTIONS

 *H              0.00182   *H2             0.68350   H2O             0.31451
 *OH             0.00017

  * THERMODYNAMIC PROPERTIES FITTED TO 20000.K

    PRODUCTS WHICH WERE CONSIDERED BUT WHOSE MOLE FRACTIONS
    WERE LESS THAN 5.000000E-06 FOR ALL ASSIGNED CONDITIONS



 NOTE. WEIGHT FRACTION OF FUEL IN TOTAL FUELS AND OF OXIDANT IN TOTAL OXIDANTS



