
 *******************************************************************************

         NASA-GLENN CHEMICAL EQUILIBRIUM PROGRAM CEA2, MAY 21, 2004
                   BY  BONNIE MCBRIDE AND SANFORD GORDON
      REFS: NASA RP-1311, PART I, 1994 AND NASA RP-1311, PART II, 1996

 *******************************************************************************



 problem rocket fr
     p(psi) = 255.6682
     o/f = 2
 reac
     fuel = H2 t(K) = 297.000 wt% = 100.000
     ox = O2 t(K) = 297.000 wt% = 100.000
 outp trans
 end

 OPTIONS: TP=F  HP=F  SP=F  TV=F  UV=F  SV=F  DETN=F  SHOCK=F  REFL=F  INCD=F
 RKT=T  FROZ=T  EQL=F  IONS=F  SIUNIT=T  DEBUGF=F  SHKDBG=F  DETDBG=F  TRNSPT=T

 TRACE= 0.00E+00  S/R= 0.000000E+00  H/R= 0.000000E+00  U/R= 0.000000E+00

 Pc,BAR =    17.627633

 Pc/P =

 SUBSONIC AREA RATIOS =

 SUPERSONIC AREA RATIOS =

 NFZ=  1  Mdot/Ac= 0.000000E+00  Ac/At= 0.000000E+00

    REACTANT          WT.FRAC   (ENERGY/R),K   TEMP,K  DENSITY
        EXPLODED FORMULA
 F: H2               1.000000  -0.398787E+01   297.00  0.0000
          H  2.00000
 O: O2               1.000000  -0.406300E+01   297.00  0.0000
          O  2.00000

  SPECIES BEING CONSIDERED IN THIS SYSTEM
 (CONDENSED PHASE MAY HAVE NAME LISTED SEVERAL TIMES)
  LAST thermo.inp UPDATE:    9/09/04

  g 6/97  *H               g 4/02  HO2              tpis78  *H2            
  g 8/89  H2O              g 6/99  H2O2             g 5/97  *O             
  g 4/02  *OH              tpis89  *O2              g 8/01  O3             
  g11/99  H2O(cr)          g 8/01  H2O(L)           g 8/01  H2O(L)         

 SPECIES WITH TRANSPORT PROPERTIES

        PURE SPECIES

  H                 H2                H2O               O               
  OH                O2              

     BINARY INTERACTIONS

     H               H2              
     H               O               
     H2              H2O             
     H2              O2              
     H2O             O2              
     O               O2              


 O/F =   2.000000

                       EFFECTIVE FUEL     EFFECTIVE OXIDANT        MIXTURE
 ENTHALPY                  h(2)/R              h(1)/R               h0/R
 (KG-MOL)(K)/KG       -0.19782258E+01     -0.12697366E+00     -0.74405771E+00

 KG-FORM.WT./KG             bi(2)               bi(1)               b0i
  *H                   0.99212255E+00      0.00000000E+00      0.33070752E+00
  *O                   0.00000000E+00      0.62502344E-01      0.41668229E-01

 POINT ITN      T            H           O 
   1    9    2071.054      -8.505     -23.166





           THEORETICAL ROCKET PERFORMANCE ASSUMING FROZEN COMPOSITION

 Pin =   255.7 PSIA
 CASE =                

             REACTANT                    WT FRACTION      ENERGY      TEMP
                                          (SEE NOTE)     KJ/KG-MOL      K  
 FUEL        H2                           1.0000000       -33.157    297.000
 OXIDANT     O2                           1.0000000       -33.782    297.000

 O/F=    2.00000  %FUEL= 33.333333  R,EQ.RATIO= 3.968341  PHI,EQ.RATIO= 3.968341

                 CHAMBER   THROAT
 Pinf/P            1.0000   1.8221
 P, BAR            17.628   9.6744
 T, K             2071.05  1818.76
 RHO, KG/CU M    6.1891-1 3.8679-1
 H, KJ/KG         -6.1864 -1609.23
 U, KJ/KG        -2854.34 -4110.42
 G, KJ/KG        -65057.1 -58735.6
 S, KJ/(KG)(K)    31.4096  31.4096

 M, (1/n)           6.046    6.046
 Cp, KJ/(KG)(K)    6.4477   6.2549
 GAMMAs            1.2711   1.2818
 SON VEL,M/SEC     1902.7   1790.6
 MACH NUMBER        0.000    1.000

 TRANSPORT PROPERTIES (GASES ONLY)
   CONDUCTIVITY IN UNITS OF MILLIWATTS/(CM)(K)

 VISC,MILLIPOISE  0.57275  0.52126

  WITH FROZEN REACTIONS

 Cp, KJ/(KG)(K)    6.4477   6.2549
 CONDUCTIVITY      6.0300   5.3533
 PRANDTL NUMBER    0.6124   0.6091

 PERFORMANCE PARAMETERS

 Ae/At                      1.0000
 CSTAR, M/SEC               2545.2
 CF                         0.7035
 Ivac, M/SEC                3187.4
 Isp, M/SEC                 1790.6

 MOLE FRACTIONS

 *H              0.00054   *H2             0.74754   H2O             0.25190
 *OH             0.00002

  * THERMODYNAMIC PROPERTIES FITTED TO 20000.K

    PRODUCTS WHICH WERE CONSIDERED BUT WHOSE MOLE FRACTIONS
    WERE LESS THAN 5.000000E-06 FOR ALL ASSIGNED CONDITIONS



 NOTE. WEIGHT FRACTION OF FUEL IN TOTAL FUELS AND OF OXIDANT IN TOTAL OXIDANTS



