
 *******************************************************************************

         NASA-GLENN CHEMICAL EQUILIBRIUM PROGRAM CEA2, MAY 21, 2004
                   BY  BONNIE MCBRIDE AND SANFORD GORDON
      REFS: NASA RP-1311, PART I, 1994 AND NASA RP-1311, PART II, 1996

 *******************************************************************************



 problem rocket fr
     p(psi) = 468.75
     o/f = 1.5
     sup = 1.6469
 reac
     fuel = H2 t(K) = 297.000 wt% = 100.000
     ox = O2 t(K) = 297.000 wt% = 100.000
 outp trans
 end

 OPTIONS: TP=F  HP=F  SP=F  TV=F  UV=F  SV=F  DETN=F  SHOCK=F  REFL=F  INCD=F
 RKT=T  FROZ=T  EQL=F  IONS=F  SIUNIT=T  DEBUGF=F  SHKDBG=F  DETDBG=F  TRNSPT=T

 TRACE= 0.00E+00  S/R= 0.000000E+00  H/R= 0.000000E+00  U/R= 0.000000E+00

 Pc,BAR =    32.319049

 Pc/P =

 SUBSONIC AREA RATIOS =

 SUPERSONIC AREA RATIOS =     1.6469

 NFZ=  1  Mdot/Ac= 0.000000E+00  Ac/At= 0.000000E+00

    REACTANT          WT.FRAC   (ENERGY/R),K   TEMP,K  DENSITY
        EXPLODED FORMULA
 F: H2               1.000000  -0.398787E+01   297.00  0.0000
          H  2.00000
 O: O2               1.000000  -0.406300E+01   297.00  0.0000
          O  2.00000

  SPECIES BEING CONSIDERED IN THIS SYSTEM
 (CONDENSED PHASE MAY HAVE NAME LISTED SEVERAL TIMES)
  LAST thermo.inp UPDATE:    9/09/04

  g 6/97  *H               g 4/02  HO2              tpis78  *H2            
  g 8/89  H2O              g 6/99  H2O2             g 5/97  *O             
  g 4/02  *OH              tpis89  *O2              g 8/01  O3             
  g11/99  H2O(cr)          g 8/01  H2O(L)           g 8/01  H2O(L)         

 SPECIES WITH TRANSPORT PROPERTIES

        PURE SPECIES

  H                 H2                H2O               O               
  OH                O2              

     BINARY INTERACTIONS

     H               H2              
     H               O               
     H2              H2O             
     H2              O2              
     H2O             O2              
     O               O2              


 O/F =   1.500000

                       EFFECTIVE FUEL     EFFECTIVE OXIDANT        MIXTURE
 ENTHALPY                  h(2)/R              h(1)/R               h0/R
 (KG-MOL)(K)/KG       -0.19782258E+01     -0.12697366E+00     -0.86747453E+00

 KG-FORM.WT./KG             bi(2)               bi(1)               b0i
  *H                   0.99212255E+00      0.00000000E+00      0.39684902E+00
  *O                   0.00000000E+00      0.62502344E-01      0.37501406E-01

 POINT ITN      T            H           O 
   1    9    1699.639      -7.853     -26.377





           THEORETICAL ROCKET PERFORMANCE ASSUMING FROZEN COMPOSITION

 Pin =   468.8 PSIA
 CASE =                

             REACTANT                    WT FRACTION      ENERGY      TEMP
                                          (SEE NOTE)     KJ/KG-MOL      K  
 FUEL        H2                           1.0000000       -33.157    297.000
 OXIDANT     O2                           1.0000000       -33.782    297.000

 O/F=    1.50000  %FUEL= 40.000000  R,EQ.RATIO= 5.291122  PHI,EQ.RATIO= 5.291122

                 CHAMBER   THROAT     EXIT
 Pinf/P            1.0000   1.8403   6.9484
 P, BAR            32.319   17.562   4.6513
 T, K             1699.64  1473.92  1062.48
 RHO, KG/CU M    1.1526 0 7.2219-1 2.6535-1
 H, KJ/KG         -7.2126 -1601.94 -4362.44
 U, KJ/KG        -2811.31 -4033.65 -6115.34
 G, KJ/KG        -58017.3 -51908.2 -40625.7
 S, KJ/(KG)(K)    34.1309  34.1309  34.1309

 M, (1/n)           5.040    5.040    5.040
 Cp, KJ/(KG)(K)    7.1818   6.9444   6.4743
 GAMMAs            1.2982   1.3116   1.3420
 SON VEL,M/SEC     1908.0   1785.9   1533.7
 MACH NUMBER        0.000    1.000    1.924

 TRANSPORT PROPERTIES (GASES ONLY)
   CONDUCTIVITY IN UNITS OF MILLIWATTS/(CM)(K)

 VISC,MILLIPOISE  0.46313  0.41792  0.32846

  WITH FROZEN REACTIONS

 Cp, KJ/(KG)(K)    7.1818   6.9444   6.4743
 CONDUCTIVITY      5.4522   4.7987   3.6251
 PRANDTL NUMBER    0.6101   0.6048   0.5866

 PERFORMANCE PARAMETERS

 Ae/At                      1.0000   1.6469
 CSTAR, M/SEC               2505.8   2505.8
 CF                         0.7127   1.1778
 Ivac, M/SEC                3147.5   3545.3
 Isp, M/SEC                 1785.9   2951.3

 MOLE FRACTIONS

 *H              0.00002   *H2             0.81098   H2O             0.18899

  * THERMODYNAMIC PROPERTIES FITTED TO 20000.K

    PRODUCTS WHICH WERE CONSIDERED BUT WHOSE MOLE FRACTIONS
    WERE LESS THAN 5.000000E-06 FOR ALL ASSIGNED CONDITIONS



 NOTE. WEIGHT FRACTION OF FUEL IN TOTAL FUELS AND OF OXIDANT IN TOTAL OXIDANTS



